Results/Brussels debug 23_05/no conductors/Brussels_1sub_overcurrents/network_debug.txt
Pandapower Network Debug Info
==================================================

BUS:
          name  vn_kv type  zone  in_service   geo
0       Bus 27   15.0    b  None        True  None
1        Bus 7   15.0    b  None        True  None
2        Bus 5    0.4    b  None        True  None
3       Bus 13    0.4    b  None        True  None
4       Bus 10    0.4    b  None        True  None
5       Bus 35   15.0    b  None        True  None
6       Bus 15    0.4    b  None        True  None
7        Bus 1    0.4    b  None        True  None
8       Bus 36    0.4    b  None        True  None
9        Bus 3   15.0    b  None        True  None
10      Bus 30    0.4    b  None        True  None
11      Bus 11   15.0    b  None        True  None
12      Bus 31   15.0    b  None        True  None
13      Bus 12    0.4    b  None        True  None
14       Bus 9    0.4    b  None        True  None
15      Bus 28    0.4    b  None        True  None
16       Bus 8    0.4    b  None        True  None
17      Bus 26   15.0    b  None        True  None
18      Bus 16    0.4    b  None        True  None
19      Bus 38    0.4    b  None        True  None
20      Bus 29    0.4    b  None        True  None
21       Bus 6   15.0    b  None        True  None
22       Bus 2    0.4    b  None        True  None
23       Bus 4   15.0    b  None        True  None
24      Bus 40   15.0    b  None        True  None
25      Bus 32   15.0    b  None        True  None
26      Bus 34    0.4    b  None        True  None
27      Bus 14    0.4    b  None        True  None
28      Bus 33   15.0    b  None        True  None
29      Bus 39   15.0    b  None        True  None
30      Bus 37   15.0    b  None        True  None
31      Bus 19    0.4    b  None        True  None
32      Bus 20    0.4    b  None        True  None
33      Bus 24   15.0    b  None        True  None
34      Bus 21   15.0    b  None        True  None
35      Bus 18    0.4    b  None        True  None
36      Bus 23    0.4    b  None        True  None
37      Bus 47   15.0    b  None        True  None
38      Bus 45    0.4    b  None        True  None
39      Bus 41    0.4    b  None        True  None
40      Bus 22   15.0    b  None        True  None
41      Bus 17   15.0    b  None        True  None
42      Bus 42   15.0    b  None        True  None
43      Bus 49    0.4    b  None        True  None
44      Bus 50    0.4    b  None        True  None
45      Bus 46   15.0    b  None        True  None
46      Bus 48    0.4    b  None        True  None
47      Bus 25    0.4    b  None        True  None
48      Bus 43   15.0    b  None        True  None
49      Bus 44    0.4    b  None        True  None
50   Sub MV 51   15.0    b  None        True  None
51   Sub LV 51    0.4    b  None        True  None
52   Sub MV 52   15.0    b  None        True  None
53   Sub LV 52    0.4    b  None        True  None
54   Sub MV 53   15.0    b  None        True  None
55   Sub LV 53    0.4    b  None        True  None
56   Sub MV 54   15.0    b  None        True  None
57   Sub LV 54    0.4    b  None        True  None
58  Slack HV 0   70.0    b  None        True  None
59  Slack MV 0   15.0    b  None        True  None
--------------------------------------------------

LOAD:
             name  bus      p_mw     q_mvar  const_z_percent  const_i_percent  sn_mva  scaling  in_service type
0      Load 27 T1    0  0.126879   0.089906              0.0              0.0     NaN      1.0        True  wye
1      Load 27 T2    0  0.126879   0.088595              0.0              0.0     NaN      1.0        True  wye
2      Load 27 T3    0  0.126879   0.087146              0.0              0.0     NaN      1.0        True  wye
3      Load 27 T4    0  0.126879   0.088077              0.0              0.0     NaN      1.0        True  wye
4      Load 27 T5    0  0.128051   0.089499              0.0              0.0     NaN      1.0        True  wye
5      Load 27 T6    0  0.146279   0.101264              0.0              0.0     NaN      1.0        True  wye
6      Load 27 T7    0  0.165476   0.109803              0.0              0.0     NaN      1.0        True  wye
7      Load 27 T8    0  0.296468   0.188810              0.0              0.0     NaN      1.0        True  wye
8      Load 27 T9    0  0.295589   0.170411              0.0              0.0     NaN      1.0        True  wye
9     Load 27 T10    0  0.293371   0.140875              0.0              0.0     NaN      1.0        True  wye
10    Load 27 T11    0  0.292160   0.132329              0.0              0.0     NaN      1.0        True  wye
11    Load 27 T12    0  0.275151   0.127427              0.0              0.0     NaN      1.0        True  wye
12    Load 27 T13    0  0.294119   0.137368              0.0              0.0     NaN      1.0        True  wye
13    Load 27 T14    0  0.293489   0.133861              0.0              0.0     NaN      1.0        True  wye
14    Load 27 T15    0  0.293984   0.132832              0.0              0.0     NaN      1.0        True  wye
15    Load 27 T16    0  0.295109   0.134441              0.0              0.0     NaN      1.0        True  wye
16    Load 27 T17    0  0.197829   0.083929              0.0              0.0     NaN      1.0        True  wye
17    Load 27 T18    0  0.165487   0.080329              0.0              0.0     NaN      1.0        True  wye
18    Load 27 T19    0  0.166621   0.097057              0.0              0.0     NaN      1.0        True  wye
19    Load 27 T20    0  0.156927   0.098852              0.0              0.0     NaN      1.0        True  wye
20    Load 27 T21    0  0.156927   0.100762              0.0              0.0     NaN      1.0        True  wye
21    Load 27 T22    0  0.147034   0.098850              0.0              0.0     NaN      1.0        True  wye
22    Load 27 T23    0  0.142088   0.103214              0.0              0.0     NaN      1.0        True  wye
23    Load 27 T24    0  0.126879   0.089268              0.0              0.0     NaN      1.0        True  wye
24      Load 7 T1    1  0.125313   0.000000              0.0              0.0     NaN      1.0        True  wye
25      Load 7 T2    1  0.125313   0.000000              0.0              0.0     NaN      1.0        True  wye
26      Load 7 T3    1  0.125313   0.000000              0.0              0.0     NaN      1.0        True  wye
27      Load 7 T4    1  0.125313   0.000000              0.0              0.0     NaN      1.0        True  wye
28      Load 7 T5    1  0.126470   0.000000              0.0              0.0     NaN      1.0        True  wye
29      Load 7 T6    1  0.144473   0.000000              0.0              0.0     NaN      1.0        True  wye
30      Load 7 T7    1  0.163433   0.000000              0.0              0.0     NaN      1.0        True  wye
31      Load 7 T8    1  0.294124   0.000000              0.0              0.0     NaN      1.0        True  wye
32      Load 7 T9    1  0.292253   0.000000              0.0              0.0     NaN      1.0        True  wye
33     Load 7 T10    1  0.290281   0.000000              0.0              0.0     NaN      1.0        True  wye
34     Load 7 T11    1  0.289204   0.000000              0.0              0.0     NaN      1.0        True  wye
35     Load 7 T12    1  0.271106   0.000000              0.0              0.0     NaN      1.0        True  wye
36     Load 7 T13    1  0.290946   0.000000              0.0              0.0     NaN      1.0        True  wye
37     Load 7 T14    1  0.290386  -0.002821              0.0              0.0     NaN      1.0        True  wye
38     Load 7 T15    1  0.290826   0.000000              0.0              0.0     NaN      1.0        True  wye
39     Load 7 T16    1  0.291828   0.000000              0.0              0.0     NaN      1.0        True  wye
40     Load 7 T17    1  0.195387   0.000000              0.0              0.0     NaN      1.0        True  wye
41     Load 7 T18    1  0.163444   0.000000              0.0              0.0     NaN      1.0        True  wye
42     Load 7 T19    1  0.164564   0.000000              0.0              0.0     NaN      1.0        True  wye
43     Load 7 T20    1  0.154990   0.000000              0.0              0.0     NaN      1.0        True  wye
44     Load 7 T21    1  0.154990   0.000000              0.0              0.0     NaN      1.0        True  wye
45     Load 7 T22    1  0.145219   0.000000              0.0              0.0     NaN      1.0        True  wye
46     Load 7 T23    1  0.140334   0.000000              0.0              0.0     NaN      1.0        True  wye
47     Load 7 T24    1  0.125313   0.000000              0.0              0.0     NaN      1.0        True  wye
48      Load 5 T1    2  0.002462  -0.000001              0.0              0.0     NaN      1.0        True  wye
49      Load 5 T2    2  0.002385  -0.000001              0.0              0.0     NaN      1.0        True  wye
50      Load 5 T3    2  0.002385  -0.000001              0.0              0.0     NaN      1.0        True  wye
51      Load 5 T4    2  0.002387  -0.000001              0.0              0.0     NaN      1.0        True  wye
52      Load 5 T5    2  0.003566  -0.000002              0.0              0.0     NaN      1.0        True  wye
53      Load 5 T6    2  0.008369  -0.000011              0.0              0.0     NaN      1.0        True  wye
54      Load 5 T7    2  0.010867  -0.000018              0.0              0.0     NaN      1.0        True  wye
55      Load 5 T8    2  0.007074  -0.003221              0.0              0.0     NaN      1.0        True  wye
56      Load 5 T9    2  0.007814  -0.003559              0.0              0.0     NaN      1.0        True  wye
57     Load 5 T10    2  0.003844  -0.001750              0.0              0.0     NaN      1.0        True  wye
58     Load 5 T11    2  0.003449  -0.001569              0.0              0.0     NaN      1.0        True  wye
59     Load 5 T12    2  0.004786  -0.002179              0.0              0.0     NaN      1.0        True  wye
60     Load 5 T13    2  0.003930  -0.001789              0.0              0.0     NaN      1.0        True  wye
61     Load 5 T14    2  0.003785  -0.001722              0.0              0.0     NaN      1.0        True  wye
62     Load 5 T15    2  0.004254  -0.001936              0.0              0.0     NaN      1.0        True  wye
63     Load 5 T16    2  0.004449  -0.002025              0.0              0.0     NaN      1.0        True  wye
64     Load 5 T17    2  0.007254  -0.000008              0.0              0.0     NaN      1.0        True  wye
65     Load 5 T18    2  0.007305  -0.000008              0.0              0.0     NaN      1.0        True  wye
66     Load 5 T19    2  0.007169  -0.000008              0.0              0.0     NaN      1.0        True  wye
67     Load 5 T20    2  0.008148  -0.000010              0.0              0.0     NaN      1.0        True  wye
68     Load 5 T21    2  0.007977  -0.000010              0.0              0.0     NaN      1.0        True  wye
69     Load 5 T22    2  0.005072  -0.000004              0.0              0.0     NaN      1.0        True  wye
70     Load 5 T23    2  0.002669  -0.000001              0.0              0.0     NaN      1.0        True  wye
71     Load 5 T24    2  0.002526  -0.000001              0.0              0.0     NaN      1.0        True  wye
72     Load 13 T1    3  0.020774  -0.000775              0.0              0.0     NaN      1.0        True  wye
73     Load 13 T2    3  0.020774  -0.000945              0.0              0.0     NaN      1.0        True  wye
74     Load 13 T3    3  0.020774  -0.004744              0.0              0.0     NaN      1.0        True  wye
75     Load 13 T4    3  0.020774  -0.001571              0.0              0.0     NaN      1.0        True  wye
76     Load 13 T5    3  0.021120  -0.000727              0.0              0.0     NaN      1.0        True  wye
77     Load 13 T6    3  0.026252  -0.000384              0.0              0.0     NaN      1.0        True  wye
78     Load 13 T7    3  0.034463  -0.012212              0.0              0.0     NaN      1.0        True  wye
79     Load 13 T8    3  0.076424  -0.052621              0.0              0.0     NaN      1.0        True  wye
80     Load 13 T9    3  0.072477  -0.054162              0.0              0.0     NaN      1.0        True  wye
81    Load 13 T10    3  0.069757  -0.053696              0.0              0.0     NaN      1.0        True  wye
82    Load 13 T11    3  0.069429  -0.052924              0.0              0.0     NaN      1.0        True  wye
83    Load 13 T12    3  0.067050  -0.052777              0.0              0.0     NaN      1.0        True  wye
84    Load 13 T13    3  0.071794  -0.055778              0.0              0.0     NaN      1.0        True  wye
85    Load 13 T14    3  0.069862  -0.054207              0.0              0.0     NaN      1.0        True  wye
86    Load 13 T15    3  0.070302  -0.053838              0.0              0.0     NaN      1.0        True  wye
87    Load 13 T16    3  0.071387  -0.046438              0.0              0.0     NaN      1.0        True  wye
88    Load 13 T17    3  0.047174  -0.061554              0.0              0.0     NaN      1.0        True  wye
89    Load 13 T18    3  0.031612  -0.006914              0.0              0.0     NaN      1.0        True  wye
90    Load 13 T19    3  0.032066  -0.005858              0.0              0.0     NaN      1.0        True  wye
91    Load 13 T20    3  0.029311  -0.019045              0.0              0.0     NaN      1.0        True  wye
92    Load 13 T21    3  0.029305  -0.010338              0.0              0.0     NaN      1.0        True  wye
93    Load 13 T22    3  0.026467  -0.002103              0.0              0.0     NaN      1.0        True  wye
94    Load 13 T23    3  0.025048  -0.001456              0.0              0.0     NaN      1.0        True  wye
95    Load 13 T24    3  0.020774   0.000586              0.0              0.0     NaN      1.0        True  wye
96     Load 10 T1    4  0.006925   0.000000              0.0              0.0     NaN      1.0        True  wye
97     Load 10 T2    4  0.006925   0.000000              0.0              0.0     NaN      1.0        True  wye
98     Load 10 T3    4  0.006925   0.000000              0.0              0.0     NaN      1.0        True  wye
99     Load 10 T4    4  0.006925   0.000000              0.0              0.0     NaN      1.0        True  wye
100    Load 10 T5    4  0.007040  -0.003206              0.0              0.0     NaN      1.0        True  wye
101    Load 10 T6    4  0.008751  -0.003988              0.0              0.0     NaN      1.0        True  wye
102    Load 10 T7    4  0.011488  -0.005239              0.0              0.0     NaN      1.0        True  wye
103    Load 10 T8    4  0.025607  -0.011720              0.0              0.0     NaN      1.0        True  wye
104    Load 10 T9    4  0.023689  -0.010837              0.0              0.0     NaN      1.0        True  wye
105   Load 10 T10    4  0.022454  -0.010269              0.0              0.0     NaN      1.0        True  wye
106   Load 10 T11    4  0.022165  -0.010136              0.0              0.0     NaN      1.0        True  wye
107   Load 10 T12    4  0.023875  -0.010923              0.0              0.0     NaN      1.0        True  wye
108   Load 10 T13    4  0.023244  -0.010632              0.0              0.0     NaN      1.0        True  wye
109   Load 10 T14    4  0.022507  -0.010293              0.0              0.0     NaN      1.0        True  wye
110   Load 10 T15    4  0.022727  -0.010394              0.0              0.0     NaN      1.0        True  wye
111   Load 10 T16    4  0.020698  -0.009460              0.0              0.0     NaN      1.0        True  wye
112   Load 10 T17    4  0.015725  -0.011495              0.0              0.0     NaN      1.0        True  wye
113   Load 10 T18    4  0.010537  -0.013871              0.0              0.0     NaN      1.0        True  wye
114   Load 10 T19    4  0.010689  -0.007014              0.0              0.0     NaN      1.0        True  wye
115   Load 10 T20    4  0.009770  -0.004454              0.0              0.0     NaN      1.0        True  wye
116   Load 10 T21    4  0.009768  -0.004453              0.0              0.0     NaN      1.0        True  wye
117   Load 10 T22    4  0.008822  -0.004020              0.0              0.0     NaN      1.0        True  wye
118   Load 10 T23    4  0.008349  -0.003804              0.0              0.0     NaN      1.0        True  wye
119   Load 10 T24    4  0.006925  -0.003154              0.0              0.0     NaN      1.0        True  wye
120    Load 35 T1    5  0.042413   0.020280              0.0              0.0     NaN      1.0        True  wye
121    Load 35 T2    5  0.042413   0.019842              0.0              0.0     NaN      1.0        True  wye
122    Load 35 T3    5  0.042413   0.019357              0.0              0.0     NaN      1.0        True  wye
123    Load 35 T4    5  0.042413   0.019669              0.0              0.0     NaN      1.0        True  wye
124    Load 35 T5    5  0.043119   0.020380              0.0              0.0     NaN      1.0        True  wye
125    Load 35 T6    5  0.053598   0.027543              0.0              0.0     NaN      1.0        True  wye
126    Load 35 T7    5  0.070362   0.037516              0.0              0.0     NaN      1.0        True  wye
127    Load 35 T8    5  0.156033   0.101535              0.0              0.0     NaN      1.0        True  wye
128    Load 35 T9    5  0.147973   0.087685              0.0              0.0     NaN      1.0        True  wye
129   Load 35 T10    5  0.142421   0.071767              0.0              0.0     NaN      1.0        True  wye
130   Load 35 T11    5  0.141750   0.068089              0.0              0.0     NaN      1.0        True  wye
131   Load 35 T12    5  0.134255   0.066137              0.0              0.0     NaN      1.0        True  wye
132   Load 35 T13    5  0.146579   0.071267              0.0              0.0     NaN      1.0        True  wye
133   Load 35 T14    5  0.142635   0.068194              0.0              0.0     NaN      1.0        True  wye
134   Load 35 T15    5  0.143533   0.067670              0.0              0.0     NaN      1.0        True  wye
135   Load 35 T16    5  0.147887   0.069543              0.0              0.0     NaN      1.0        True  wye
136   Load 35 T17    5  0.096314   0.032095              0.0              0.0     NaN      1.0        True  wye
137   Load 35 T18    5  0.064540   0.021923              0.0              0.0     NaN      1.0        True  wye
138   Load 35 T19    5  0.065468   0.028749              0.0              0.0     NaN      1.0        True  wye
139   Load 35 T20    5  0.059843   0.028234              0.0              0.0     NaN      1.0        True  wye
140   Load 35 T21    5  0.059830   0.028954              0.0              0.0     NaN      1.0        True  wye
141   Load 35 T22    5  0.054037   0.026774              0.0              0.0     NaN      1.0        True  wye
142   Load 35 T23    5  0.051139   0.027544              0.0              0.0     NaN      1.0        True  wye
143   Load 35 T24    5  0.042413   0.020067              0.0              0.0     NaN      1.0        True  wye
144    Load 15 T1    6  0.003486  -0.001558              0.0              0.0     NaN      1.0        True  wye
145    Load 15 T2    6  0.003486  -0.005409              0.0              0.0     NaN      1.0        True  wye
146    Load 15 T3    6  0.003486  -0.001584              0.0              0.0     NaN      1.0        True  wye
147    Load 15 T4    6  0.003486  -0.004778              0.0              0.0     NaN      1.0        True  wye
148    Load 15 T5    6  0.003486  -0.000371              0.0              0.0     NaN      1.0        True  wye
149    Load 15 T6    6  0.003486  -0.001091              0.0              0.0     NaN      1.0        True  wye
150    Load 15 T7    6  0.009234  -0.002719              0.0              0.0     NaN      1.0        True  wye
151    Load 15 T8    6  0.014703  -0.017445              0.0              0.0     NaN      1.0        True  wye
152    Load 15 T9    6  0.025557  -0.023308              0.0              0.0     NaN      1.0        True  wye
153   Load 15 T10    6  0.022259  -0.021993              0.0              0.0     NaN      1.0        True  wye
154   Load 15 T11    6  0.020167  -0.020919              0.0              0.0     NaN      1.0        True  wye
155   Load 15 T12    6  0.023297  -0.022678              0.0              0.0     NaN      1.0        True  wye
156   Load 15 T13    6  0.022169  -0.021949              0.0              0.0     NaN      1.0        True  wye
157   Load 15 T14    6  0.021603  -0.021284              0.0              0.0     NaN      1.0        True  wye
158   Load 15 T15    6  0.022811  -0.022094              0.0              0.0     NaN      1.0        True  wye
159   Load 15 T16    6  0.021333  -0.020551              0.0              0.0     NaN      1.0        True  wye
160   Load 15 T17    6  0.030343  -0.012040              0.0              0.0     NaN      1.0        True  wye
161   Load 15 T18    6  0.022998  -0.014104              0.0              0.0     NaN      1.0        True  wye
162   Load 15 T19    6  0.020238  -0.017127              0.0              0.0     NaN      1.0        True  wye
163   Load 15 T20    6  0.020263  -0.000449              0.0              0.0     NaN      1.0        True  wye
164   Load 15 T21    6  0.004057  -0.009657              0.0              0.0     NaN      1.0        True  wye
165   Load 15 T22    6  0.003486  -0.000074              0.0              0.0     NaN      1.0        True  wye
166   Load 15 T23    6  0.003486  -0.000680              0.0              0.0     NaN      1.0        True  wye
167   Load 15 T24    6  0.003486  -0.001425              0.0              0.0     NaN      1.0        True  wye
168     Load 1 T1    7  0.031660  -0.004723              0.0              0.0     NaN      1.0        True  wye
169     Load 1 T2    7  0.030395  -0.001266              0.0              0.0     NaN      1.0        True  wye
170     Load 1 T3    7  0.029763  -0.001243              0.0              0.0     NaN      1.0        True  wye
171     Load 1 T4    7  0.030286  -0.001262              0.0              0.0     NaN      1.0        True  wye
172     Load 1 T5    7  0.035517   0.001202              0.0              0.0     NaN      1.0        True  wye
173     Load 1 T6    7  0.045499  -0.013276              0.0              0.0     NaN      1.0        True  wye
174     Load 1 T7    7  0.053862  -0.021694              0.0              0.0     NaN      1.0        True  wye
175     Load 1 T8    7  0.053815  -0.032446              0.0              0.0     NaN      1.0        True  wye
176     Load 1 T9    7  0.051262  -0.031738              0.0              0.0     NaN      1.0        True  wye
177    Load 1 T10    7  0.051039  -0.031964              0.0              0.0     NaN      1.0        True  wye
178    Load 1 T11    7  0.051671  -0.032228              0.0              0.0     NaN      1.0        True  wye
179    Load 1 T12    7  0.050938  -0.032012              0.0              0.0     NaN      1.0        True  wye
180    Load 1 T13    7  0.047612  -0.030519              0.0              0.0     NaN      1.0        True  wye
181    Load 1 T14    7  0.047840  -0.030306              0.0              0.0     NaN      1.0        True  wye
182    Load 1 T15    7  0.048674  -0.030818              0.0              0.0     NaN      1.0        True  wye
183    Load 1 T16    7  0.051554  -0.031443              0.0              0.0     NaN      1.0        True  wye
184    Load 1 T17    7  0.076902  -0.029644              0.0              0.0     NaN      1.0        True  wye
185    Load 1 T18    7  0.077722  -0.031806              0.0              0.0     NaN      1.0        True  wye
186    Load 1 T19    7  0.072497  -0.034840              0.0              0.0     NaN      1.0        True  wye
187    Load 1 T20    7  0.069968  -0.035844              0.0              0.0     NaN      1.0        True  wye
188    Load 1 T21    7  0.064691  -0.022315              0.0              0.0     NaN      1.0        True  wye
189    Load 1 T22    7  0.053092  -0.023287              0.0              0.0     NaN      1.0        True  wye
190    Load 1 T23    7  0.042802  -0.011481              0.0              0.0     NaN      1.0        True  wye
191    Load 1 T24    7  0.034189   0.001038              0.0              0.0     NaN      1.0        True  wye
192    Load 36 T1    8  0.024236   0.000000              0.0              0.0     NaN      1.0        True  wye
193    Load 36 T2    8  0.024236   0.000000              0.0              0.0     NaN      1.0        True  wye
194    Load 36 T3    8  0.024236   0.000000              0.0              0.0     NaN      1.0        True  wye
195    Load 36 T4    8  0.024236   0.000000              0.0              0.0     NaN      1.0        True  wye
196    Load 36 T5    8  0.024639   0.000000              0.0              0.0     NaN      1.0        True  wye
197    Load 36 T6    8  0.030628  -0.001521              0.0              0.0     NaN      1.0        True  wye
198    Load 36 T7    8  0.040207   0.000000              0.0              0.0     NaN      1.0        True  wye
199    Load 36 T8    8  0.089162  -0.055419              0.0              0.0     NaN      1.0        True  wye
...

EXT_GRID:
        name  bus  vm_pu  va_degree  slack_weight  in_service
0  ExtGrid 0   58    1.0        0.0           1.0        True
--------------------------------------------------

LINE:
        name std_type  from_bus  to_bus  length_km  r_ohm_per_km  x_ohm_per_km  c_nf_per_km  g_us_per_km  max_i_ka   df  parallel  type  in_service   geo
0     Line 0     None        59      50   1.642723        0.1732         0.381          0.0          0.0      1.53  1.0         1  None        True  None
1     Line 1     None        59      52   0.559322        0.1732         0.381          0.0          0.0      1.53  1.0         1  None        True  None
2     Line 2     None        59      54   0.640207        0.1732         0.381          0.0          0.0      1.53  1.0         1  None        True  None
3     Line 3     None        59      56   1.330873        0.1732         0.381          0.0          0.0      1.53  1.0         1  None        True  None
4   Line 131     None        38      39   0.082462        0.1732         0.381          0.0          0.0      1.53  1.0         1  None        True  None
5     Line 5     None        50      42   0.102357        0.1732         0.381          0.0          0.0      1.53  1.0         1  None        True  None
6   Line 133     None        44      39   0.058310        0.1732         0.381          0.0          0.0      1.53  1.0         1  None        True  None
7     Line 7     None        50      48   0.130608        0.1732         0.381          0.0          0.0      1.53  1.0         1  None        True  None
8    Line 11     None        52      21   0.025220        0.1732         0.381          0.0          0.0      1.53  1.0         1  None        True  None
9    Line 12     None        52      23   0.142264        0.1732         0.381          0.0          0.0      1.53  1.0         1  None        True  None
10  Line 140     None        44      43   0.102956        0.1732         0.381          0.0          0.0      1.53  1.0         1  None        True  None
11   Line 18     None        54      25   0.085194        0.1732         0.381          0.0          0.0      1.53  1.0         1  None        True  None
12   Line 20     None        54      29   0.043747        0.1732         0.381          0.0          0.0      1.53  1.0         1  None        True  None
13   Line 22     None        56      33   0.142217        0.1732         0.381          0.0          0.0      1.53  1.0         1  None        True  None
14   Line 23     None        56      34   0.132992        0.1732         0.381          0.0          0.0      1.53  1.0         1  None        True  None
15   Line 29     None        51      44   0.152551        0.1732         0.381          0.0          0.0      1.53  1.0         1  None        True  None
16   Line 30     None        51      46   0.072861        0.1732         0.381          0.0          0.0      1.53  1.0         1  None        True  None
17   Line 31     None        51      49   0.088460        0.1732         0.381          0.0          0.0      1.53  1.0         1  None        True  None
18   Line 39     None        53      16   0.080792        0.1732         0.381          0.0          0.0      1.53  1.0         1  None        True  None
19   Line 42     None        53      27   0.064454        0.1732         0.381          0.0          0.0      1.53  1.0         1  None        True  None
20   Line 47     None        55      20   0.113302        0.1732         0.381          0.0          0.0      1.53  1.0         1  None        True  None
21   Line 49     None        57      31   0.011202        0.1732         0.381          0.0          0.0      1.53  1.0         1  None        True  None
22   Line 50     None        57      32   0.056133        0.1732         0.381          0.0          0.0      1.53  1.0         1  None        True  None
23   Line 56     None         1       9   0.089443        0.1732         0.381          0.0          0.0      1.53  1.0         1  None        True  None
24   Line 57     None        11       9   0.139284        0.1732         0.381          0.0          0.0      1.53  1.0         1  None        True  None
25   Line 61     None        11      21   0.148661        0.1732         0.381          0.0          0.0      1.53  1.0         1  None        True  None
26   Line 64     None        40      41   0.080000        0.1732         0.381          0.0          0.0      1.53  1.0         1  None        True  None
27   Line 68     None        33      40   0.131529        0.1732         0.381          0.0          0.0      1.53  1.0         1  None        True  None
28   Line 70     None        12      17   0.058310        0.1732         0.381          0.0          0.0      1.53  1.0         1  None        True  None
29   Line 74     None        24      17   0.092195        0.1732         0.381          0.0          0.0      1.53  1.0         1  None        True  None
30   Line 76     None         5       0   0.063246        0.1732         0.381          0.0          0.0      1.53  1.0         1  None        True  None
31   Line 77     None         5      12   0.126491        0.1732         0.381          0.0          0.0      1.53  1.0         1  None        True  None
32   Line 81     None        30      28   0.084853        0.1732         0.381          0.0          0.0      1.53  1.0         1  None        True  None
33   Line 82     None        29      28   0.076158        0.1732         0.381          0.0          0.0      1.53  1.0         1  None        True  None
34   Line 83     None        24      28   0.098489        0.1732         0.381          0.0          0.0      1.53  1.0         1  None        True  None
35   Line 89     None        45      48   0.092195        0.1732         0.381          0.0          0.0      1.53  1.0         1  None        True  None
36   Line 91     None        37      45   0.136015        0.1732         0.381          0.0          0.0      1.53  1.0         1  None        True  None
37   Line 92     None         4       7   0.067082        0.1732         0.381          0.0          0.0      1.53  1.0         1  None        True  None
38   Line 93     None        13       7   0.092195        0.1732         0.381          0.0          0.0      1.53  1.0         1  None        True  None
39   Line 94     None         6       7   0.104403        0.1732         0.381          0.0          0.0      1.53  1.0         1  None        True  None
40   Line 97     None        14      22   0.092195        0.1732         0.381          0.0          0.0      1.53  1.0         1  None        True  None
41  Line 100     None         3       2   0.060828        0.1732         0.381          0.0          0.0      1.53  1.0         1  None        True  None
42  Line 102     None        14      16   0.092195        0.1732         0.381          0.0          0.0      1.53  1.0         1  None        True  None
43  Line 104     None         3      14   0.143178        0.1732         0.381          0.0          0.0      1.53  1.0         1  None        True  None
44  Line 107     None        18      13   0.063246        0.1732         0.381          0.0          0.0      1.53  1.0         1  None        True  None
45  Line 108     None         6       3   0.063246        0.1732         0.381          0.0          0.0      1.53  1.0         1  None        True  None
46  Line 111     None        32      35   0.058310        0.1732         0.381          0.0          0.0      1.53  1.0         1  None        True  None
47  Line 112     None        36      35   0.060000        0.1732         0.381          0.0          0.0      1.53  1.0         1  None        True  None
48  Line 113     None        47      35   0.151327        0.1732         0.381          0.0          0.0      1.53  1.0         1  None        True  None
49  Line 120     None         8      15   0.143178        0.1732         0.381          0.0          0.0      1.53  1.0         1  None        True  None
50  Line 121     None        19      15   0.080623        0.1732         0.381          0.0          0.0      1.53  1.0         1  None        True  None
51  Line 122     None        10      20   0.156205        0.1732         0.381          0.0          0.0      1.53  1.0         1  None        True  None
52  Line 123     None        26      20   0.120416        0.1732         0.381          0.0          0.0      1.53  1.0         1  None        True  None
53  Line 127     None         8      10   0.150000        0.1732         0.381          0.0          0.0      1.53  1.0         1  None        True  None
--------------------------------------------------

TRAFO:
                   name std_type  hv_bus  lv_bus  sn_mva  vn_hv_kv  vn_lv_kv  vk_percent  vkr_percent  pfe_kw  i0_percent  shift_degree tap_side  tap_neutral  tap_min  tap_max  tap_step_percent  tap_step_degree  tap_pos tap_changer_type  id_characteristic_table  tap_dependency_table  parallel   df  in_service
0  MV/LV Transformer 51     None      50      51    10.0      15.0       0.4        0.01         0.01    0.01        0.01           0.0     None          NaN      NaN      NaN               NaN              NaN      NaN              NaN                     <NA>                 False         1  1.0        True
1  MV/LV Transformer 52     None      52      53    10.0      15.0       0.4        0.01         0.01    0.01        0.01           0.0     None          NaN      NaN      NaN               NaN              NaN      NaN              NaN                     <NA>                 False         1  1.0        True
2  MV/LV Transformer 53     None      54      55    10.0      15.0       0.4        0.01         0.01    0.01        0.01           0.0     None          NaN      NaN      NaN               NaN              NaN      NaN              NaN                     <NA>                 False         1  1.0        True
3  MV/LV Transformer 54     None      56      57    10.0      15.0       0.4        0.01         0.01    0.01        0.01           0.0     None          NaN      NaN      NaN               NaN              NaN      NaN              NaN                     <NA>                 False         1  1.0        True
4   Slack Transformer 0     None      58      59    40.0      70.0      15.0        0.01         0.01    0.01        0.01           0.0     None          NaN      NaN      NaN               NaN              NaN      NaN              NaN                     <NA>                 False         1  1.0        True
--------------------------------------------------

RES_BUS:
       vm_pu  va_degree      p_mw    q_mvar
0   0.998808  -0.049270  0.126879  0.089268
1   0.999788  -0.058855  0.125313  0.000000
2   0.956891  -7.153800  0.002526 -0.000001
3   0.957065  -7.130903  0.020774  0.000586
4   0.949483  -9.136490  0.006925 -0.003154
5   0.998824  -0.048739  0.042413  0.020067
6   0.954063  -7.876297  0.003486 -0.001425
7   0.949483  -9.051636  0.034189  0.001038
8   0.963953  -4.572793  0.024236  0.000000
9   0.999797  -0.057767  0.248207 -0.000036
10  0.973548  -3.359959  0.018177 -0.004338
11  0.999837  -0.052718  0.017311  0.000000
12  0.998864  -0.047268  0.016157  0.005363
13  0.949481  -9.507412  0.025967 -0.011925
14  0.968705  -4.983162  0.018177 -0.003273
15  0.958964  -5.235845  0.030295  0.000037
16  0.985125  -2.553220  0.030295 -0.020704
17  0.998884  -0.046513  0.375939  0.266453
18  0.949481  -9.519635  0.001058 -0.000481
19  0.958955  -5.248977  0.000926 -0.000378
20  0.985690  -1.677178  0.015580  0.007371
21  0.999881  -0.047079  0.098684 -0.167256
22  0.962336  -5.829513  0.062324 -0.000874
23  0.999889  -0.046346  0.030171 -0.037472
24  0.998983  -0.043033  0.002883 -0.010389
25  0.999214  -0.034548  0.030295  0.014333
26  0.985650  -1.959027  0.013849 -0.006200
27  0.999416  -0.104522  0.006681 -0.000007
28  0.999088  -0.039245  0.020196  0.006703
29  0.999171  -0.036161  0.003364 -0.012120
30  0.999087  -0.039276  0.004008  0.000463
31  0.999261  -0.042003  0.016157  0.005363
32  0.997115  -0.262009  0.020196  0.006703
33  0.999574  -0.022258  0.003295 -0.011873
34  0.999593  -0.021384  0.036354  0.017200
35  0.996758  -0.375793  0.010387  0.004264
36  0.997327  -0.397690  0.000705 -0.004298
37  0.999158  -0.040565  0.016157  0.005363
38  0.987724  -1.687343  0.018177 -0.001505
39  0.989074  -1.470129  0.010684  0.001319
40  0.999548  -0.023296  0.002614 -0.007340
41  0.999531  -0.023881  0.109649  0.075515
42  0.999140  -0.040704  0.164473  0.115718
43  0.989162  -1.458863  0.015580 -0.000063
44  0.990910  -1.235173  0.010845 -0.003235
45  0.999161  -0.040384  0.012118  0.002884
46  0.994965  -0.243389  0.025967  0.012286
47  0.997647  -0.440319  0.001648 -0.003212
48  0.999164  -0.040164  0.024236  0.008044
49  0.995841  -0.218910  0.018177  0.007462
50  0.999173  -0.039591  0.000000  0.000000
51  0.999172  -0.039581  0.000000  0.000000
52  0.999884  -0.045695  0.000000  0.000000
53  0.999881  -0.045704  0.000000  0.000000
54  0.999218  -0.034352  0.000000  0.000000
55  0.999217  -0.034349  0.000000  0.000000
56  0.999601  -0.021016  0.000000  0.000000
57  0.999600  -0.021010  0.000000  0.000000
58  1.000000   0.000000 -1.990318 -0.404455
59  0.999995   0.000058  0.000000  0.000000
--------------------------------------------------

RES_LINE:
    p_from_mw   q_from_mvar   p_to_mw  q_to_mvar         pl_mw       ql_mvar  i_from_ka   i_to_ka      i_ka  vm_from_pu  va_from_degree  vm_to_pu  va_to_degree  loading_percent
0    0.317317  1.512347e-01 -0.317160  -0.150891  1.562494e-04  3.437125e-04   0.013530  0.013530  0.013530    0.999995        0.000058  0.999173     -0.039591         0.884303
1    0.743055 -2.198798e-01 -0.742797   0.220449  2.585409e-04  5.687303e-04   0.029826  0.029826  0.029826    0.999995        0.000058  0.999884     -0.045695         1.949430
2    0.728771  3.854736e-01 -0.728436  -0.384737  3.349703e-04  7.368573e-04   0.031733  0.031733  0.031733    0.999995        0.000058  0.999218     -0.034352         2.074038
3    0.201154  8.362616e-02 -0.201105  -0.083519  4.861825e-05  1.069489e-04   0.008385  0.008385  0.008385    0.999995        0.000058  0.999601     -0.021016         0.548031
4   -0.018177  1.505382e-03  0.018207  -0.001438  3.043806e-05  6.695671e-05   0.026653  0.026653  0.026653    0.987724       -1.687343  0.989074     -1.470129         1.742029
5    0.164476  1.157246e-01 -0.164473  -0.115718  3.191990e-06  7.021641e-06   0.007747  0.007747  0.007747    0.999173       -0.039591  0.999140     -0.040704         0.506345
6    0.028945 -5.807703e-07 -0.028891   0.000119  5.385843e-05  1.184761e-04   0.042162  0.042162  0.042162    0.990910       -1.235173  0.989074     -1.470129         2.755695
7    0.052511  1.629180e-02 -0.052511  -0.016291  3.044180e-07  6.696493e-07   0.002118  0.002118  0.002118    0.999173       -0.039591  0.999164     -0.040164         0.138428
8    0.489554 -1.672063e-01 -0.489549   0.167218  5.196686e-06  1.143151e-05   0.019914  0.019914  0.019914    0.999884       -0.045695  0.999881     -0.047079         1.301569
9    0.030172 -3.747125e-02 -0.030171   0.037472  2.535148e-07  5.576740e-07   0.001852  0.001852  0.001852    0.999884       -0.045695  0.999889     -0.046346         0.121040
10   0.015608 -1.940558e-06 -0.015580   0.000063  2.765007e-05  6.082377e-05   0.022735  0.022735  0.022735    0.990910       -1.235173  0.989162     -1.458863         1.485921
11   0.030295  1.433354e-02 -0.030295  -0.014333  7.377738e-08  1.622932e-07   0.001291  0.001291  0.001291    0.999218       -0.034352  0.999214     -0.034548         0.084378
12   0.591960  3.660710e-01 -0.591943  -0.366035  1.633858e-05  3.594110e-05   0.026810  0.026810  0.026810    0.999218       -0.034352  0.999171     -0.036161         1.752303
13   0.115563  5.631245e-02 -0.115561  -0.056308  1.810631e-06  3.982970e-06   0.004950  0.004950  0.004950    0.999601       -0.021016  0.999574     -0.022258         0.323529
14   0.036354  1.720042e-02 -0.036354  -0.017200  1.657188e-07  3.645430e-07   0.001549  0.001549  0.001549    0.999601       -0.021016  0.999593     -0.021384         0.101215
15   0.055916 -2.098603e-03 -0.055398   0.003238  5.178990e-04  1.139258e-03   0.080831  0.080831  0.080831    0.999172       -0.039581  0.990910     -1.235173         5.283098
16   0.026033  1.243038e-02 -0.025967  -0.012286  6.574742e-05  1.446291e-04   0.041673  0.041673  0.041673    0.999172       -0.039581  0.994965     -0.243389         2.723737
17   0.018214  7.544507e-03 -0.018177  -0.007462  3.728034e-05  8.200814e-05   0.028479  0.028479  0.028479    0.999172       -0.039581  0.995841     -0.218910         1.861402
18   0.216377 -1.677032e-02 -0.212257   0.025834  4.120240e-03  9.063577e-03   0.313287  0.313287  0.313287    0.999881       -0.045704  0.985125     -2.553220        20.476295
19   0.006684 -4.103245e-07 -0.006681   0.000007  3.117573e-06  6.857940e-06   0.009648  0.009648  0.009648    0.999881       -0.045704  0.999416     -0.104522         0.630606
20   0.106172  3.333824e-03 -0.104786  -0.000285  1.386103e-03  3.049107e-03   0.153442  0.153442  0.153442    0.999217       -0.034349  0.985690     -1.677178        10.028876
21   0.016161  5.370323e-03 -0.016157  -0.005363  3.519595e-06  7.742296e-06   0.024590  0.024590  0.024590    0.999600       -0.021010  0.999261     -0.042003         1.607191
22   0.033018  3.636867e-03 -0.032951  -0.003489  6.710062e-05  1.476059e-04   0.047964  0.047964  0.047964    0.999600       -0.021010  0.997115     -0.262009         3.134924
23  -0.125313  1.851243e-12  0.125314   0.000002  1.081649e-06  2.379379e-06   0.004824  0.004824  0.004824    0.999788       -0.058855  0.999797     -0.057767         0.315315
24   0.373536 -2.913368e-07 -0.373521   0.000033  1.496487e-05  3.291926e-05   0.014380  0.014380  0.014380    0.999837       -0.052718  0.999797     -0.057767         0.939853
25  -0.390847  2.913377e-07  0.390865   0.000038  1.748709e-05  3.846756e-05   0.015046  0.015046  0.015046    0.999837       -0.052718  0.999881     -0.047079         0.983410
26   0.109650  7.551752e-02 -0.109649  -0.075515  1.092594e-06  2.403455e-06   0.005127  0.005127  0.005127    0.999548       -0.023296  0.999531     -0.023881         0.335088
27   0.112266  6.818119e-02 -0.112264  -0.068177  1.748262e-06  3.845773e-06   0.005058  0.005058  0.005058    0.999574       -0.022258  0.999548     -0.023296         0.330572
28  -0.185454 -1.147084e-01  0.185456   0.114713  2.139217e-06  4.705784e-06   0.008403  0.008403  0.008403    0.998864       -0.047268  0.998884     -0.046513         0.549202
29   0.561428  3.812384e-01 -0.561395  -0.381166  3.275140e-05  7.204552e-05   0.026147  0.026147  0.026147    0.998983       -0.043033  0.998884     -0.046513         1.708969
30   0.126881  8.927041e-02 -0.126879  -0.089268  1.174506e-06  2.583642e-06   0.005978  0.005978  0.005978    0.998824       -0.048739  0.998808     -0.049270         0.390739
31  -0.169293 -1.093371e-01  0.169297   0.109346  3.963982e-06  8.719845e-06   0.007766  0.007766  0.007766    0.998824       -0.048739  0.998864     -0.047268         0.507586
32  -0.004008 -4.627709e-04  0.004008   0.000463  1.065394e-09  2.343621e-09   0.000155  0.000155  0.000155    0.999087       -0.039276  0.999088     -0.039245         0.010160
33   0.588579  3.781552e-01 -0.588551  -0.378092  2.874006e-05  6.322150e-05   0.026950  0.026950  0.026950    0.999171       -0.036161  0.999088     -0.039245         1.761412
34  -0.564311 -3.708497e-01  0.564346   0.370926  3.463998e-05  7.619996e-05   0.026017  0.026017  0.026017    0.998983       -0.043033  0.999088     -0.039245         1.700474
35  -0.028275 -8.247128e-03  0.028275   0.008247  6.166973e-08  1.356592e-07   0.001135  0.001135  0.001135    0.999161       -0.040384  0.999164     -0.040164         0.074158
36  -0.016157 -5.362653e-03  0.016157   0.005363  3.039489e-08  6.686174e-08   0.000656  0.000656  0.000656    0.999158       -0.040565  0.999161     -0.040384         0.042863
37  -0.006925  3.153623e-03  0.006929  -0.003143  4.663317e-06  1.025822e-05   0.011567  0.011567  0.011567    0.949483       -9.136490  0.949483     -9.051636         0.755994
38  -0.027025  1.240643e-02  0.027123  -0.012191  9.789341e-05  2.153429e-04   0.045205  0.045205  0.045205    0.949481       -9.507412  0.949483     -9.051636         2.954582
39   0.068851 -1.295620e-02 -0.068241   0.014297  6.094207e-04  1.340585e-03   0.105991  0.105991  0.105991    0.954063       -7.876297  0.949483     -9.051636         6.927491
40   0.062743  4.653549e-05 -0.062324   0.000874  4.186772e-04  9.209931e-04   0.093487  0.093487  0.093487    0.968705       -4.983162  0.962336     -5.829513         6.110249
41   0.002527 -1.661239e-07 -0.002526   0.000001  4.589121e-07  1.009501e-06   0.003810  0.003810  0.003810    0.957065       -7.130903  0.956891     -7.153800         0.249051
42  -0.178554  1.262633e-02  0.181962  -0.005130  3.407702e-03  7.496158e-03   0.266711  0.266711  0.266711    0.968705       -4.983162  0.985125     -2.553220        17.432115
43  -0.096046  1.289538e-02  0.097635  -0.009400  1.589057e-03  3.495558e-03   0.146149  0.146149  0.146149    0.957065       -7.130903  0.968705     -4.983162         9.552241
44  -0.001058  4.814603e-04  0.001058  -0.000481  1.026294e-07  2.257609e-07   0.001767  0.001767  0.001767    0.949481       -9.519635  0.949481     -9.507412         0.115503
45  -0.072337  1.438073e-02  0.072746  -0.013481  4.091239e-04  8.999780e-04   0.111578  0.111578  0.111578    0.954063       -7.876297  0.957065     -7.130903         7.292667
46   0.012754 -3.213965e-03 -0.012743   0.003238  1.098280e-05  2.415963e-05   0.019039  0.019039  0.019039    0.997115       -0.262009  0.996758     -0.375793         1.244402
47  -0.000705  4.297612e-03  0.000707  -0.004295  1.238523e-06  2.724464e-06   0.006303  0.006303  0.006303    0.997327       -0.397690  0.996758     -0.375793         0.411956
48  -0.001648  3.212241e-03  0.001650  -0.003208  2.145027e-06  4.718563e-06   0.005223  0.005223  0.005223    0.997647       -0.440319  0.996758     -0.375793         0.341375
49   0.031385  2.070080e-05 -0.031221   0.000341  1.642997e-04  3.614214e-04   0.046994  0.046994  0.046994    0.963953       -4.572793  0.958964     -5.235845         3.071524
50  -0.000926  3.783517e-04  0.000926  -0.000378  9.493757e-08  2.088407e-07   0.001505  0.001505  0.001505    0.958955       -5.248977  0.958964     -5.235845         0.098393
51  -0.074338  3.127687e-03  0.075326  -0.000955  9.876438e-04  2.172588e-03   0.110311  0.110311  0.110311    0.973548       -3.359959  0.985690     -1.677178         7.209858
52  -0.013849  6.199589e-03  0.013880  -0.006132  3.089079e-05  6.795261e-05   0.022220  0.022220  0.022220    0.985650       -1.959027  0.985690     -1.677178         1.452267
53  -0.055621 -2.070079e-05  0.056161   0.001210  5.406065e-04  1.189209e-03   0.083284  0.083284  0.083284    0.963953       -4.572793  0.973548     -3.359959         5.443384
--------------------------------------------------

RES_TRAFO:
    p_hv_mw  q_hv_mvar   p_lv_mw  q_lv_mvar    pl_mw   ql_mvar   i_hv_ka   i_lv_ka  vm_hv_pu  va_hv_degree  vm_lv_pu  va_lv_degree  loading_percent
0  0.100173   0.018875 -0.100163  -0.017876  0.00001  0.000998  0.003927  0.146979  0.999173     -0.039591  0.999172     -0.039581         1.020198
1  0.223071  -0.015771 -0.223061   0.016771  0.00001  0.001000  0.008608  0.322908  0.999884     -0.045695  0.999881     -0.045704         2.237170
2  0.106182   0.004332 -0.106172  -0.003334  0.00001  0.000998  0.004094  0.153442  0.999218     -0.034352  0.999217     -0.034349         1.063536
3  0.049188   0.010006 -0.049178  -0.009007  0.00001  0.000999  0.001933  0.072193  0.999601     -0.021016  0.999600     -0.021010         0.502159
4  1.990318   0.404455 -1.990297  -0.400455  0.00002  0.004000  0.016751  0.078142  1.000000      0.000000  0.999995      0.000058         5.077492
--------------------------------------------------

RES_EXT_GRID:
       p_mw    q_mvar
0  1.990318  0.404455
--------------------------------------------------

RES_LOAD:
          p_mw    q_mvar
0     0.000000  0.000000
1     0.000000  0.000000
2     0.000000  0.000000
3     0.000000  0.000000
4     0.000000  0.000000
5     0.000000  0.000000
6     0.000000  0.000000
7     0.000000  0.000000
8     0.000000  0.000000
9     0.000000  0.000000
10    0.000000  0.000000
11    0.000000  0.000000
12    0.000000  0.000000
13    0.000000  0.000000
14    0.000000  0.000000
15    0.000000  0.000000
16    0.000000  0.000000
17    0.000000  0.000000
18    0.000000  0.000000
19    0.000000  0.000000
20    0.000000  0.000000
21    0.000000  0.000000
22    0.000000  0.000000
23    0.126879  0.089268
24    0.000000  0.000000
25    0.000000  0.000000
26    0.000000  0.000000
27    0.000000  0.000000
28    0.000000  0.000000
29    0.000000  0.000000
30    0.000000  0.000000
31    0.000000  0.000000
32    0.000000  0.000000
33    0.000000  0.000000
34    0.000000  0.000000
35    0.000000  0.000000
36    0.000000  0.000000
37    0.000000 -0.000000
38    0.000000  0.000000
39    0.000000  0.000000
40    0.000000  0.000000
41    0.000000  0.000000
42    0.000000  0.000000
43    0.000000  0.000000
44    0.000000  0.000000
45    0.000000  0.000000
46    0.000000  0.000000
47    0.125313  0.000000
48    0.000000 -0.000000
49    0.000000 -0.000000
50    0.000000 -0.000000
51    0.000000 -0.000000
52    0.000000 -0.000000
53    0.000000 -0.000000
54    0.000000 -0.000000
55    0.000000 -0.000000
56    0.000000 -0.000000
57    0.000000 -0.000000
58    0.000000 -0.000000
59    0.000000 -0.000000
60    0.000000 -0.000000
61    0.000000 -0.000000
62    0.000000 -0.000000
63    0.000000 -0.000000
64    0.000000 -0.000000
65    0.000000 -0.000000
66    0.000000 -0.000000
67    0.000000 -0.000000
68    0.000000 -0.000000
69    0.000000 -0.000000
70    0.000000 -0.000000
71    0.002526 -0.000001
72    0.000000 -0.000000
73    0.000000 -0.000000
74    0.000000 -0.000000
75    0.000000 -0.000000
76    0.000000 -0.000000
77    0.000000 -0.000000
78    0.000000 -0.000000
79    0.000000 -0.000000
80    0.000000 -0.000000
81    0.000000 -0.000000
82    0.000000 -0.000000
83    0.000000 -0.000000
84    0.000000 -0.000000
85    0.000000 -0.000000
86    0.000000 -0.000000
87    0.000000 -0.000000
88    0.000000 -0.000000
89    0.000000 -0.000000
90    0.000000 -0.000000
91    0.000000 -0.000000
92    0.000000 -0.000000
93    0.000000 -0.000000
94    0.000000 -0.000000
95    0.020774  0.000586
96    0.000000  0.000000
97    0.000000  0.000000
98    0.000000  0.000000
99    0.000000  0.000000
100   0.000000 -0.000000
101   0.000000 -0.000000
102   0.000000 -0.000000
103   0.000000 -0.000000
104   0.000000 -0.000000
105   0.000000 -0.000000
106   0.000000 -0.000000
107   0.000000 -0.000000
108   0.000000 -0.000000
109   0.000000 -0.000000
110   0.000000 -0.000000
111   0.000000 -0.000000
112   0.000000 -0.000000
113   0.000000 -0.000000
114   0.000000 -0.000000
115   0.000000 -0.000000
116   0.000000 -0.000000
117   0.000000 -0.000000
118   0.000000 -0.000000
119   0.006925 -0.003154
120   0.000000  0.000000
121   0.000000  0.000000
122   0.000000  0.000000
123   0.000000  0.000000
124   0.000000  0.000000
125   0.000000  0.000000
126   0.000000  0.000000
127   0.000000  0.000000
128   0.000000  0.000000
129   0.000000  0.000000
130   0.000000  0.000000
131   0.000000  0.000000
132   0.000000  0.000000
133   0.000000  0.000000
134   0.000000  0.000000
135   0.000000  0.000000
136   0.000000  0.000000
137   0.000000  0.000000
138   0.000000  0.000000
139   0.000000  0.000000
140   0.000000  0.000000
141   0.000000  0.000000
142   0.000000  0.000000
143   0.042413  0.020067
144   0.000000 -0.000000
145   0.000000 -0.000000
146   0.000000 -0.000000
147   0.000000 -0.000000
148   0.000000 -0.000000
149   0.000000 -0.000000
150   0.000000 -0.000000
151   0.000000 -0.000000
152   0.000000 -0.000000
153   0.000000 -0.000000
154   0.000000 -0.000000
155   0.000000 -0.000000
156   0.000000 -0.000000
157   0.000000 -0.000000
158   0.000000 -0.000000
159   0.000000 -0.000000
160   0.000000 -0.000000
161   0.000000 -0.000000
162   0.000000 -0.000000
163   0.000000 -0.000000
164   0.000000 -0.000000
165   0.000000 -0.000000
166   0.000000 -0.000000
167   0.003486 -0.001425
168   0.000000 -0.000000
169   0.000000 -0.000000
170   0.000000 -0.000000
171   0.000000 -0.000000
172   0.000000  0.000000
173   0.000000 -0.000000
174   0.000000 -0.000000
175   0.000000 -0.000000
176   0.000000 -0.000000
177   0.000000 -0.000000
178   0.000000 -0.000000
179   0.000000 -0.000000
180   0.000000 -0.000000
181   0.000000 -0.000000
182   0.000000 -0.000000
183   0.000000 -0.000000
184   0.000000 -0.000000
185   0.000000 -0.000000
186   0.000000 -0.000000
187   0.000000 -0.000000
188   0.000000 -0.000000
189   0.000000 -0.000000
190   0.000000 -0.000000
191   0.034189  0.001038
192   0.000000  0.000000
193   0.000000  0.000000
194   0.000000  0.000000
195   0.000000  0.000000
196   0.000000  0.000000
197   0.000000 -0.000000
198   0.000000  0.000000
199   0.000000 -0.000000
...

BUS_GEODATA:
             x           y
0   187.000000   47.000000
1   191.000000   18.000000
2   195.000000   34.000000
3   196.000000   28.000000
4   189.000000    9.000000
5   193.000000   49.000000
6   198.000000   22.000000
7   195.000000   12.000000
8   192.000000   57.000000
9   199.000000   14.000000
10  201.000000   45.000000
11  204.000000   27.000000
12  197.000000   61.000000
13  201.000000    5.000000
14  210.000000   31.000000
15  189.000000   71.000000
16  212.000000   22.000000
17  200.000000   66.000000
18  207.000000    3.000000
19  188.000000   79.000000
20  213.000000   55.000000
21  218.000000   22.000000
22  219.000000   33.000000
23  215.000000    7.000000
24  202.000000   75.000000
25  217.000000   56.000000
26  221.000000   46.000000
27  221.000000   14.000000
28  211.000000   71.000000
29  218.000000   68.000000
30  217.000000   77.000000
31   33.000000   39.000000
32   27.000000   36.000000
33   25.000000   26.000000
34   23.000000   48.000000
35   22.000000   39.000000
36   22.000000   45.000000
37  237.000000  156.000000
38  245.000000  153.000000
39  243.000000  161.000000
40   12.000000   28.000000
41   12.000000   36.000000
42  253.000000  158.000000
43  237.000000  171.000000
44  246.000000  166.000000
45  241.000000  169.000000
46  260.000000  157.000000
47    7.000000   41.000000
48  250.000000  171.000000
49  262.000000  173.000000
50  261.147980  164.195118
51  261.647980  163.695118
52  219.909414   20.352433
53  220.409414   19.852433
54  219.841252   64.031701
55  220.341252   63.531701
56   32.113899   38.314630
57   32.613899   37.814630
58  165.000000   31.000000
59  165.500000   30.500000
--------------------------------------------------
